Version 4
SHEET 1 1680 932
WIRE 1168 -656 1136 -656
WIRE 1264 -656 1248 -656
WIRE -128 -640 -160 -640
WIRE -32 -640 -48 -640
WIRE -1152 -624 -1184 -624
WIRE -1024 -624 -1072 -624
WIRE 1136 -624 1136 -656
WIRE -160 -608 -160 -640
WIRE -1184 -592 -1184 -624
WIRE 1264 -528 1264 -656
WIRE -32 -512 -32 -640
WIRE 1216 -512 1136 -512
WIRE -80 -496 -144 -496
WIRE 1424 -496 1376 -496
WIRE 1568 -496 1424 -496
WIRE 160 -480 80 -480
WIRE 272 -480 160 -480
WIRE -1024 -464 -1024 -624
WIRE 976 -464 976 -480
WIRE 1216 -464 976 -464
WIRE -1072 -448 -1120 -448
WIRE -240 -448 -240 -496
WIRE -80 -448 -240 -448
WIRE 976 -448 976 -464
WIRE -752 -432 -752 -464
WIRE -752 -432 -912 -432
WIRE -1264 -400 -1264 -480
WIRE -1072 -400 -1264 -400
WIRE -240 -384 -240 -448
WIRE 1568 -384 1568 -496
WIRE -1264 -368 -1264 -400
WIRE -1120 -368 -1120 -448
WIRE 272 -368 272 -480
WIRE 1136 -368 1136 -512
WIRE 1424 -368 1424 -496
WIRE 1424 -368 1136 -368
WIRE -752 -352 -752 -432
WIRE -144 -336 -144 -496
WIRE 160 -336 160 -480
WIRE 160 -336 -144 -336
WIRE 976 -320 976 -368
WIRE 1568 -272 1568 -320
WIRE -240 -256 -240 -304
WIRE 272 -256 272 -304
WIRE -1264 -240 -1264 -288
WIRE -752 -240 -752 -288
WIRE 1168 -192 1104 -192
WIRE 1264 -192 1264 -448
WIRE 1264 -192 1248 -192
WIRE -128 -176 -192 -176
WIRE -32 -176 -32 -432
WIRE -32 -176 -48 -176
WIRE -1152 -160 -1216 -160
WIRE -1024 -160 -1024 -384
WIRE -1024 -160 -1072 -160
WIRE 1104 -96 1104 -192
WIRE -192 -80 -192 -176
WIRE -1216 -64 -1216 -160
WIRE 592 288 560 288
WIRE 720 288 672 288
WIRE 560 320 560 288
WIRE -656 352 -688 352
WIRE -512 352 -576 352
WIRE -688 384 -688 352
WIRE -352 416 -608 416
WIRE 720 416 720 288
WIRE 672 432 592 432
WIRE 848 448 832 448
WIRE 992 448 848 448
WIRE 496 464 480 464
WIRE 592 464 592 432
WIRE 592 464 576 464
WIRE -512 480 -512 352
WIRE 672 480 640 480
WIRE -608 496 -608 416
WIRE -560 496 -608 496
WIRE -352 512 -352 416
WIRE -352 512 -400 512
WIRE -256 512 -352 512
WIRE 480 512 480 464
WIRE 640 512 640 480
WIRE -768 544 -768 496
WIRE -560 544 -768 544
WIRE 480 544 480 512
WIRE 992 560 992 448
WIRE 592 576 592 464
WIRE 736 576 592 576
WIRE 848 576 848 448
WIRE 848 576 816 576
WIRE -768 608 -768 544
WIRE -256 624 -256 512
WIRE 480 672 480 624
WIRE 992 672 992 624
WIRE -768 736 -768 688
WIRE -256 736 -256 688
WIRE 592 752 528 752
WIRE 720 752 720 496
WIRE 720 752 672 752
WIRE -656 816 -720 816
WIRE -512 816 -512 560
WIRE -512 816 -576 816
WIRE 528 848 528 752
WIRE -720 912 -720 816
FLAG -752 -240 0
FLAG -1264 -240 0
FLAG -1184 -592 0
FLAG -1216 -64 0
FLAG -1264 -480 Vin
IOPIN -1264 -480 In
FLAG -752 -464 Vout
IOPIN -752 -464 Out
FLAG -1120 -368 0
FLAG 272 -256 0
FLAG -240 -256 0
FLAG -160 -608 0
FLAG -192 -80 0
FLAG -240 -496 Vin
IOPIN -240 -496 In
FLAG 272 -480 Vout
IOPIN 272 -480 Out
FLAG 1568 -272 0
FLAG 976 -320 0
FLAG 1136 -624 0
FLAG 1104 -96 0
FLAG 976 -480 Vin
IOPIN 976 -480 In
FLAG 1568 -496 Vout
IOPIN 1568 -496 Out
FLAG -256 736 0
FLAG -768 736 0
FLAG -688 384 0
FLAG -720 912 0
FLAG -768 496 Vin
IOPIN -768 496 In
FLAG -256 512 Vout
IOPIN -256 512 Out
FLAG 992 672 0
FLAG 480 672 0
FLAG 560 320 0
FLAG 528 848 0
FLAG 480 512 Vin
IOPIN 480 512 In
FLAG 992 448 Vout
IOPIN 992 448 Out
FLAG 640 512 0
SYMBOL cap -768 -352 R0
SYMATTR InstName Cl1
SYMATTR Value 5p
SYMBOL voltage -1264 -384 R0
WINDOW 123 24 124 Left 2
WINDOW 39 0 0 Left 0
SYMATTR Value2 AC 1 0
SYMATTR InstName Vin1
SYMATTR Value 0
SYMBOL voltage -1056 -624 R90
WINDOW 0 -32 56 VBottom 2
WINDOW 3 32 56 VTop 2
SYMATTR InstName Vdd1
SYMATTR Value 2.5
SYMBOL voltage -1056 -160 R90
WINDOW 0 32 56 VTop 2
WINDOW 3 -32 56 VBottom 2
WINDOW 123 0 0 Left 0
WINDOW 39 0 0 Left 0
SYMATTR InstName Vss1
SYMATTR Value -2.5
SYMBOL cap 256 -368 R0
SYMATTR InstName Cl2
SYMATTR Value 5p
SYMBOL voltage -240 -400 R0
WINDOW 123 24 124 Left 2
WINDOW 39 0 0 Left 0
SYMATTR InstName Vin2
SYMATTR Value PULSE(0 1 2u 0.1n 0.1n 2.5u 5u 2)
SYMBOL voltage -32 -640 R90
WINDOW 0 -32 56 VBottom 2
WINDOW 3 32 56 VTop 2
SYMATTR InstName Vdd2
SYMATTR Value 2.5
SYMBOL voltage -32 -176 R90
WINDOW 0 32 56 VTop 2
WINDOW 3 -32 56 VBottom 2
WINDOW 123 0 0 Left 0
WINDOW 39 0 0 Left 0
SYMATTR InstName Vss2
SYMATTR Value -2.5
SYMBOL cap 1552 -384 R0
SYMATTR InstName Cl3
SYMATTR Value 5p
SYMBOL voltage 976 -464 R0
WINDOW 123 0 0 Left 0
WINDOW 39 0 0 Left 0
WINDOW 3 -369 100 Left 2
SYMATTR Value PULSE(0 1 10u 1n 1n 5u 10u 3)
SYMATTR InstName Vin3
SYMBOL voltage 1264 -656 R90
WINDOW 0 -32 56 VBottom 2
WINDOW 3 32 56 VTop 2
SYMATTR InstName Vdd3
SYMATTR Value 2.5
SYMBOL voltage 1264 -192 R90
WINDOW 0 32 56 VTop 2
WINDOW 3 -32 56 VBottom 2
WINDOW 123 0 0 Left 0
WINDOW 39 0 0 Left 0
SYMATTR InstName Vss3
SYMATTR Value -2.5
SYMBOL cap -272 624 R0
SYMATTR InstName Cl4
SYMATTR Value 5p
SYMBOL voltage -768 592 R0
WINDOW 123 0 0 Left 0
WINDOW 39 0 0 Left 0
SYMATTR InstName Vin4
SYMATTR Value 1
SYMBOL voltage -560 352 R90
WINDOW 0 -32 56 VBottom 2
WINDOW 3 32 56 VTop 2
SYMATTR InstName Vdd4
SYMATTR Value 2.5
SYMBOL voltage -560 816 R90
WINDOW 0 32 56 VTop 2
WINDOW 3 -32 56 VBottom 2
WINDOW 123 0 0 Left 0
WINDOW 39 0 0 Left 0
SYMATTR InstName Vss4
SYMATTR Value -2.5
SYMBOL cap 976 560 R0
SYMATTR InstName Cl5
SYMATTR Value 5p
SYMBOL voltage 480 528 R0
WINDOW 123 0 0 Left 0
WINDOW 39 0 0 Left 0
SYMATTR InstName Vin5
SYMATTR Value 1
SYMBOL voltage 688 288 R90
WINDOW 0 -32 56 VBottom 2
WINDOW 3 32 56 VTop 2
SYMATTR InstName Vdd5
SYMATTR Value 2.5
SYMBOL voltage 688 752 R90
WINDOW 0 32 56 VTop 2
WINDOW 3 -32 56 VBottom 2
WINDOW 123 0 0 Left 0
WINDOW 39 0 0 Left 0
SYMATTR InstName Vss5
SYMATTR Value -2.5
SYMBOL res 592 448 R90
WINDOW 0 0 56 VBottom 2
WINDOW 3 32 56 VTop 2
SYMATTR InstName R1
SYMATTR Value 10G
SYMBOL res 832 560 R90
WINDOW 0 0 56 VBottom 2
WINDOW 3 32 56 VTop 2
SYMATTR InstName R2
SYMATTR Value 100G
SYMBOL AutoGenerated\\myOPAMP -992 -432 R0
SYMATTR InstName U1
SYMBOL AutoGenerated\\myOPAMP 0 -480 R0
SYMATTR InstName U2
SYMBOL AutoGenerated\\myOPAMP 1296 -496 R0
SYMATTR InstName U3
SYMBOL AutoGenerated\\myOPAMP -480 512 R0
SYMATTR InstName U4
SYMBOL AutoGenerated\\myOPAMP 752 448 R0
SYMATTR InstName U5
TEXT -1184 -720 Left 2 ;Simulazione P.M., Wo e DCgain
TEXT -904 -152 Left 2 !.ac dec 1000 1 10MEG
TEXT -160 -736 Left 2 ;Simulazione Rumore
TEXT 120 -168 Left 2 !.noise V(vout) Vin dec 1001 1k 10MEG
TEXT 1136 -752 Left 2 ;Simulazione Slew-Rate
TEXT 1416 -184 Left 2 !.tran 0 40u 0
TEXT -688 256 Left 2 ;Simulazione variazione Tensione di Modo Comune
TEXT -408 824 Left 2 !.dc Vin -2.6 2.6 0.01
TEXT 560 192 Left 2 ;Simulazione variazione Tensione d'Uscita
TEXT 840 760 Left 2 !.dc Vin -2.6 2.6 0.01
